* SPICE export by:  S-Edit 15.10
* Export time:      Mon Jun 20 10:16:59 2011
* Design:           SERDES_V01_VCO_AF
* Cell:             vco_carac
* Interface:        schematic
* View:             schematic
* View type:        connectivity
* Export as:        top-level cell
* Export mode:      hierarchical
* Exclude empty cells: yes
* Exclude .model:   yes
* Exclude .end:     yes
* Exclude simulator commands:     yes
* Expand paths:     yes
* Wrap lines:       80 characters
* Root path:        \\VBOXSVR\virtualbox\SERDES_V01\tanner\sedit\SERDES_V01_VCO_AF
* Exclude global pins:   yes
* Exclude instance locations: yes
* Control property name: SPICE

*************** Subcircuits *****************
.subckt bias_buffer SUB VDD VSS bias_buffer iref_buffer  
*
*
*
*
*
*
*
*
*
*
*
*
*
*
*
*
*
*
*
*
*
*
*
*
*
*
*
*
*
*
*
*
*
*
*
*
XMN1 bias_buffer bias_buffer VSS  SUB nch_mac l=100n w=1.5u m=1 nf=4 as=93.75f ad=75f 
+ps=2.75u pd=1.7u sa=375n sb=375n
XMN2<0> bias_buffer GP VDD  VDD pch_mac l=50n w=1u m=1 nf=4 as=62.5f ad=50f ps=2u 
+pd=1.2u sa=300n sb=300n
XMN2<1> bias_buffer GP VDD  VDD pch_mac l=50n w=1u m=1 nf=4 as=62.5f ad=50f ps=2u 
+pd=1.2u sa=300n sb=300n
XMN2<2> bias_buffer GP VDD  VDD pch_mac l=50n w=1u m=1 nf=4 as=62.5f ad=50f ps=2u 
+pd=1.2u sa=300n sb=300n
XMN2<3> bias_buffer GP VDD  VDD pch_mac l=50n w=1u m=1 nf=4 as=62.5f ad=50f ps=2u 
+pd=1.2u sa=300n sb=300n
XMN2<4> bias_buffer GP VDD  VDD pch_mac l=50n w=1u m=1 nf=4 as=62.5f ad=50f ps=2u 
+pd=1.2u sa=300n sb=300n
XMN2<5> bias_buffer GP VDD  VDD pch_mac l=50n w=1u m=1 nf=4 as=62.5f ad=50f ps=2u 
+pd=1.2u sa=300n sb=300n
XMN3 GP GP VDD  VDD pch_mac l=50n w=1u m=1 nf=4 as=62.5f ad=50f ps=2u pd=1.2u sa=300n 
+sb=300n
XMN4 GP iref_buffer VSS  SUB nch_mac l=50n w=1u m=1 nf=4 as=62.5f ad=50f ps=2u pd=1.2u 
+sa=300n sb=300n
XMN5 iref_buffer iref_buffer VSS  SUB nch_mac l=50n w=1u m=1 nf=4 as=62.5f ad=50f 
+ps=2u pd=1.2u sa=300n sb=300n
XMN6<0> N_10 SUB SUB  SUB nch_mac l=50n w=1u m=1 nf=4 as=62.5f ad=50f ps=2u pd=1.2u 
+sa=300n sb=300n
XMN6<1> N_9 SUB SUB  SUB nch_mac l=50n w=1u m=1 nf=4 as=62.5f ad=50f ps=2u pd=1.2u 
+sa=300n sb=300n
XMN6<2> N_8 SUB SUB  SUB nch_mac l=50n w=1u m=1 nf=4 as=62.5f ad=50f ps=2u pd=1.2u 
+sa=300n sb=300n
XMN6<3> N_7 SUB SUB  SUB nch_mac l=50n w=1u m=1 nf=4 as=62.5f ad=50f ps=2u pd=1.2u 
+sa=300n sb=300n
XMN6<4> N_6 SUB SUB  SUB nch_mac l=50n w=1u m=1 nf=4 as=62.5f ad=50f ps=2u pd=1.2u 
+sa=300n sb=300n
XMN6<5> N_5 SUB SUB  SUB nch_mac l=50n w=1u m=1 nf=4 as=62.5f ad=50f ps=2u pd=1.2u 
+sa=300n sb=300n
XMN6<6> N_4 SUB SUB  SUB nch_mac l=50n w=1u m=1 nf=4 as=62.5f ad=50f ps=2u pd=1.2u 
+sa=300n sb=300n
XMN6<7> N_3 SUB SUB  SUB nch_mac l=50n w=1u m=1 nf=4 as=62.5f ad=50f ps=2u pd=1.2u 
+sa=300n sb=300n
XMN6<8> N_2 SUB SUB  SUB nch_mac l=50n w=1u m=1 nf=4 as=62.5f ad=50f ps=2u pd=1.2u 
+sa=300n sb=300n
XMN6<9> N_1 SUB SUB  SUB nch_mac l=50n w=1u m=1 nf=4 as=62.5f ad=50f ps=2u pd=1.2u 
+sa=300n sb=300n
XMN7<0> N_28 VDD VDD  VDD pch_mac l=50n w=1u m=1 nf=4 as=62.5f ad=50f ps=2u pd=1.2u 
+sa=300n sb=300n
XMN7<1> N_27 VDD VDD  VDD pch_mac l=50n w=1u m=1 nf=4 as=62.5f ad=50f ps=2u pd=1.2u 
+sa=300n sb=300n
XMN7<2> N_26 VDD VDD  VDD pch_mac l=50n w=1u m=1 nf=4 as=62.5f ad=50f ps=2u pd=1.2u 
+sa=300n sb=300n
XMN7<3> N_25 VDD VDD  VDD pch_mac l=50n w=1u m=1 nf=4 as=62.5f ad=50f ps=2u pd=1.2u 
+sa=300n sb=300n
XMN7<4> N_24 VDD VDD  VDD pch_mac l=50n w=1u m=1 nf=4 as=62.5f ad=50f ps=2u pd=1.2u 
+sa=300n sb=300n
XMN7<5> N_23 VDD VDD  VDD pch_mac l=50n w=1u m=1 nf=4 as=62.5f ad=50f ps=2u pd=1.2u 
+sa=300n sb=300n
XMN7<6> N_22 VDD VDD  VDD pch_mac l=50n w=1u m=1 nf=4 as=62.5f ad=50f ps=2u pd=1.2u 
+sa=300n sb=300n
XMN7<7> N_21 VDD VDD  VDD pch_mac l=50n w=1u m=1 nf=4 as=62.5f ad=50f ps=2u pd=1.2u 
+sa=300n sb=300n
XMN7<8> N_20 VDD VDD  VDD pch_mac l=50n w=1u m=1 nf=4 as=62.5f ad=50f ps=2u pd=1.2u 
+sa=300n sb=300n
XMN7<9> N_19 VDD VDD  VDD pch_mac l=50n w=1u m=1 nf=4 as=62.5f ad=50f ps=2u pd=1.2u 
+sa=300n sb=300n
XMN7<10> N_18 VDD VDD  VDD pch_mac l=50n w=1u m=1 nf=4 as=62.5f ad=50f ps=2u pd=1.2u 
+sa=300n sb=300n
XMN7<11> N_17 VDD VDD  VDD pch_mac l=50n w=1u m=1 nf=4 as=62.5f ad=50f ps=2u pd=1.2u 
+sa=300n sb=300n
XMN7<12> N_16 VDD VDD  VDD pch_mac l=50n w=1u m=1 nf=4 as=62.5f ad=50f ps=2u pd=1.2u 
+sa=300n sb=300n
XMN7<13> N_15 VDD VDD  VDD pch_mac l=50n w=1u m=1 nf=4 as=62.5f ad=50f ps=2u pd=1.2u 
+sa=300n sb=300n
XMN7<14> N_14 VDD VDD  VDD pch_mac l=50n w=1u m=1 nf=4 as=62.5f ad=50f ps=2u pd=1.2u 
+sa=300n sb=300n
XMN7<15> N_13 VDD VDD  VDD pch_mac l=50n w=1u m=1 nf=4 as=62.5f ad=50f ps=2u pd=1.2u 
+sa=300n sb=300n
XMN7<16> N_12 VDD VDD  VDD pch_mac l=50n w=1u m=1 nf=4 as=62.5f ad=50f ps=2u pd=1.2u 
+sa=300n sb=300n
XMN7<17> N_11 VDD VDD  VDD pch_mac l=50n w=1u m=1 nf=4 as=62.5f ad=50f ps=2u pd=1.2u 
+sa=300n sb=300n
XMN8<0> N_36 SUB SUB  SUB nch_mac l=100n w=1.5u m=1 nf=4 as=93.75f ad=75f ps=2.75u 
+pd=1.7u sa=375n sb=375n
XMN8<1> N_35 SUB SUB  SUB nch_mac l=100n w=1.5u m=1 nf=4 as=93.75f ad=75f ps=2.75u 
+pd=1.7u sa=375n sb=375n
XMN8<2> N_34 SUB SUB  SUB nch_mac l=100n w=1.5u m=1 nf=4 as=93.75f ad=75f ps=2.75u 
+pd=1.7u sa=375n sb=375n
XMN8<3> N_33 SUB SUB  SUB nch_mac l=100n w=1.5u m=1 nf=4 as=93.75f ad=75f ps=2.75u 
+pd=1.7u sa=375n sb=375n
XMN8<4> N_32 SUB SUB  SUB nch_mac l=100n w=1.5u m=1 nf=4 as=93.75f ad=75f ps=2.75u 
+pd=1.7u sa=375n sb=375n
XMN8<5> N_31 SUB SUB  SUB nch_mac l=100n w=1.5u m=1 nf=4 as=93.75f ad=75f ps=2.75u 
+pd=1.7u sa=375n sb=375n
XMN8<6> N_30 SUB SUB  SUB nch_mac l=100n w=1.5u m=1 nf=4 as=93.75f ad=75f ps=2.75u 
+pd=1.7u sa=375n sb=375n
XMN8<7> N_29 SUB SUB  SUB nch_mac l=100n w=1.5u m=1 nf=4 as=93.75f ad=75f ps=2.75u 
+pd=1.7u sa=375n sb=375n
.ends

.subckt buffer_v1 INN INP OUTN OUTP SUB VBIAS VDD VSS  
*
*
*
*
*
*
*
*
*
*
*
*
*
*
*
*
*
*
*
*
*
*
*
*
*
*
*
*
*
*
*
*
*
*
*
*
*
*
*
*
*
*
*
*
*
*
*
*
*
*
*
*
*
*
*
*
*
*
*
*
*
*
*
*
*
*
XMN1<0> ds1 VBIAS VSS  SUB nch_mac l=100n w=1.5u m=1 nf=4 as=93.75f ad=75f ps=2.75u 
+pd=1.7u sa=375n sb=375n
XMN1<1> ds1 VBIAS VSS  SUB nch_mac l=100n w=1.5u m=1 nf=4 as=93.75f ad=75f ps=2.75u 
+pd=1.7u sa=375n sb=375n
XMN1<2> ds1 VBIAS VSS  SUB nch_mac l=100n w=1.5u m=1 nf=4 as=93.75f ad=75f ps=2.75u 
+pd=1.7u sa=375n sb=375n
XMN1<3> ds1 VBIAS VSS  SUB nch_mac l=100n w=1.5u m=1 nf=4 as=93.75f ad=75f ps=2.75u 
+pd=1.7u sa=375n sb=375n
XMN1<4> ds1 VBIAS VSS  SUB nch_mac l=100n w=1.5u m=1 nf=4 as=93.75f ad=75f ps=2.75u 
+pd=1.7u sa=375n sb=375n
XMN1<5> ds1 VBIAS VSS  SUB nch_mac l=100n w=1.5u m=1 nf=4 as=93.75f ad=75f ps=2.75u 
+pd=1.7u sa=375n sb=375n
XMN1<6> ds1 VBIAS VSS  SUB nch_mac l=100n w=1.5u m=1 nf=4 as=93.75f ad=75f ps=2.75u 
+pd=1.7u sa=375n sb=375n
XMN1<7> ds1 VBIAS VSS  SUB nch_mac l=100n w=1.5u m=1 nf=4 as=93.75f ad=75f ps=2.75u 
+pd=1.7u sa=375n sb=375n
XMN1<8> ds1 VBIAS VSS  SUB nch_mac l=100n w=1.5u m=1 nf=4 as=93.75f ad=75f ps=2.75u 
+pd=1.7u sa=375n sb=375n
XMN1<9> ds1 VBIAS VSS  SUB nch_mac l=100n w=1.5u m=1 nf=4 as=93.75f ad=75f ps=2.75u 
+pd=1.7u sa=375n sb=375n
XMN1<10> ds1 VBIAS VSS  SUB nch_mac l=100n w=1.5u m=1 nf=4 as=93.75f ad=75f ps=2.75u 
+pd=1.7u sa=375n sb=375n
XMN1<11> ds1 VBIAS VSS  SUB nch_mac l=100n w=1.5u m=1 nf=4 as=93.75f ad=75f ps=2.75u 
+pd=1.7u sa=375n sb=375n
XMN1<12> ds1 VBIAS VSS  SUB nch_mac l=100n w=1.5u m=1 nf=4 as=93.75f ad=75f ps=2.75u 
+pd=1.7u sa=375n sb=375n
XMN1<13> ds1 VBIAS VSS  SUB nch_mac l=100n w=1.5u m=1 nf=4 as=93.75f ad=75f ps=2.75u 
+pd=1.7u sa=375n sb=375n
XMN1<14> ds1 VBIAS VSS  SUB nch_mac l=100n w=1.5u m=1 nf=4 as=93.75f ad=75f ps=2.75u 
+pd=1.7u sa=375n sb=375n
XMN1<15> ds1 VBIAS VSS  SUB nch_mac l=100n w=1.5u m=1 nf=4 as=93.75f ad=75f ps=2.75u 
+pd=1.7u sa=375n sb=375n
XMN2<0> OUTP INN ds1  SUB nch_mac l=30n w=2.24u m=1 nf=8 as=126f ad=112f ps=3.7u 
+pd=2.44u sa=530n sb=530n
XMN2<1> OUTP INN ds1  SUB nch_mac l=30n w=2.24u m=1 nf=8 as=126f ad=112f ps=3.7u 
+pd=2.44u sa=530n sb=530n
XMN2<2> OUTP INN ds1  SUB nch_mac l=30n w=2.24u m=1 nf=8 as=126f ad=112f ps=3.7u 
+pd=2.44u sa=530n sb=530n
XMN2<3> OUTP INN ds1  SUB nch_mac l=30n w=2.24u m=1 nf=8 as=126f ad=112f ps=3.7u 
+pd=2.44u sa=530n sb=530n
XMN2<4> OUTP INN ds1  SUB nch_mac l=30n w=2.24u m=1 nf=8 as=126f ad=112f ps=3.7u 
+pd=2.44u sa=530n sb=530n
XMN2<5> OUTP INN ds1  SUB nch_mac l=30n w=2.24u m=1 nf=8 as=126f ad=112f ps=3.7u 
+pd=2.44u sa=530n sb=530n
XMN2<6> OUTP INN ds1  SUB nch_mac l=30n w=2.24u m=1 nf=8 as=126f ad=112f ps=3.7u 
+pd=2.44u sa=530n sb=530n
XMN2<7> OUTP INN ds1  SUB nch_mac l=30n w=2.24u m=1 nf=8 as=126f ad=112f ps=3.7u 
+pd=2.44u sa=530n sb=530n
XMN3<0> OUTN INP ds1  SUB nch_mac l=30n w=2.24u m=1 nf=8 as=126f ad=112f ps=3.7u 
+pd=2.44u sa=530n sb=530n
XMN3<1> OUTN INP ds1  SUB nch_mac l=30n w=2.24u m=1 nf=8 as=126f ad=112f ps=3.7u 
+pd=2.44u sa=530n sb=530n
XMN3<2> OUTN INP ds1  SUB nch_mac l=30n w=2.24u m=1 nf=8 as=126f ad=112f ps=3.7u 
+pd=2.44u sa=530n sb=530n
XMN3<3> OUTN INP ds1  SUB nch_mac l=30n w=2.24u m=1 nf=8 as=126f ad=112f ps=3.7u 
+pd=2.44u sa=530n sb=530n
XMN3<4> OUTN INP ds1  SUB nch_mac l=30n w=2.24u m=1 nf=8 as=126f ad=112f ps=3.7u 
+pd=2.44u sa=530n sb=530n
XMN3<5> OUTN INP ds1  SUB nch_mac l=30n w=2.24u m=1 nf=8 as=126f ad=112f ps=3.7u 
+pd=2.44u sa=530n sb=530n
XMN3<6> OUTN INP ds1  SUB nch_mac l=30n w=2.24u m=1 nf=8 as=126f ad=112f ps=3.7u 
+pd=2.44u sa=530n sb=530n
XMN3<7> OUTN INP ds1  SUB nch_mac l=30n w=2.24u m=1 nf=8 as=126f ad=112f ps=3.7u 
+pd=2.44u sa=530n sb=530n
XMN4<0> N_26 SUB SUB  SUB nch_mac l=30n w=280n m=8 nf=1
XMN4<1> N_25 SUB SUB  SUB nch_mac l=30n w=280n m=8 nf=1
XMN4<2> N_24 SUB SUB  SUB nch_mac l=30n w=280n m=8 nf=1
XMN4<3> N_23 SUB SUB  SUB nch_mac l=30n w=280n m=8 nf=1
XMN4<4> N_22 SUB SUB  SUB nch_mac l=30n w=280n m=8 nf=1
XMN4<5> N_21 SUB SUB  SUB nch_mac l=30n w=280n m=8 nf=1
XMN4<6> N_20 SUB SUB  SUB nch_mac l=30n w=280n m=8 nf=1
XMN4<7> N_19 SUB SUB  SUB nch_mac l=30n w=280n m=8 nf=1
XMN4<8> N_18 SUB SUB  SUB nch_mac l=30n w=280n m=8 nf=1
XMN4<9> N_17 SUB SUB  SUB nch_mac l=30n w=280n m=8 nf=1
XMN4<10> N_16 SUB SUB  SUB nch_mac l=30n w=280n m=8 nf=1
XMN4<11> N_15 SUB SUB  SUB nch_mac l=30n w=280n m=8 nf=1
XMN4<12> N_14 SUB SUB  SUB nch_mac l=30n w=280n m=8 nf=1
XMN4<13> N_13 SUB SUB  SUB nch_mac l=30n w=280n m=8 nf=1
XMN4<14> N_12 SUB SUB  SUB nch_mac l=30n w=280n m=8 nf=1
XMN4<15> N_11 SUB SUB  SUB nch_mac l=30n w=280n m=8 nf=1
XMN4<16> N_10 SUB SUB  SUB nch_mac l=30n w=280n m=8 nf=1
XMN4<17> N_9 SUB SUB  SUB nch_mac l=30n w=280n m=8 nf=1
XMN4<18> N_8 SUB SUB  SUB nch_mac l=30n w=280n m=8 nf=1
XMN4<19> N_7 SUB SUB  SUB nch_mac l=30n w=280n m=8 nf=1
XMN4<20> N_6 SUB SUB  SUB nch_mac l=30n w=280n m=8 nf=1
XMN4<21> N_5 SUB SUB  SUB nch_mac l=30n w=280n m=8 nf=1
XMN4<22> N_4 SUB SUB  SUB nch_mac l=30n w=280n m=8 nf=1
XMN4<23> N_3 SUB SUB  SUB nch_mac l=30n w=280n m=8 nf=1
XMN4<24> N_2 SUB SUB  SUB nch_mac l=30n w=280n m=8 nf=1
XMN4<25> N_1 SUB SUB  SUB nch_mac l=30n w=280n m=8 nf=1
XMN5<0> N_66 SUB SUB  SUB nch_mac l=100n w=375n m=4 nf=1
XMN5<1> N_65 SUB SUB  SUB nch_mac l=100n w=375n m=4 nf=1
XMN5<2> N_64 SUB SUB  SUB nch_mac l=100n w=375n m=4 nf=1
XMN5<3> N_63 SUB SUB  SUB nch_mac l=100n w=375n m=4 nf=1
XMN5<4> N_62 SUB SUB  SUB nch_mac l=100n w=375n m=4 nf=1
XMN5<5> N_61 SUB SUB  SUB nch_mac l=100n w=375n m=4 nf=1
XMN5<6> N_60 SUB SUB  SUB nch_mac l=100n w=375n m=4 nf=1
XMN5<7> N_59 SUB SUB  SUB nch_mac l=100n w=375n m=4 nf=1
XMN5<8> N_58 SUB SUB  SUB nch_mac l=100n w=375n m=4 nf=1
XMN5<9> N_57 SUB SUB  SUB nch_mac l=100n w=375n m=4 nf=1
XMN5<10> N_56 SUB SUB  SUB nch_mac l=100n w=375n m=4 nf=1
XMN5<11> N_55 SUB SUB  SUB nch_mac l=100n w=375n m=4 nf=1
XMN5<12> N_54 SUB SUB  SUB nch_mac l=100n w=375n m=4 nf=1
XMN5<13> N_53 SUB SUB  SUB nch_mac l=100n w=375n m=4 nf=1
XMN5<14> N_52 SUB SUB  SUB nch_mac l=100n w=375n m=4 nf=1
XMN5<15> N_51 SUB SUB  SUB nch_mac l=100n w=375n m=4 nf=1
XMN5<16> N_50 SUB SUB  SUB nch_mac l=100n w=375n m=4 nf=1
XMN5<17> N_49 SUB SUB  SUB nch_mac l=100n w=375n m=4 nf=1
XMN5<18> N_48 SUB SUB  SUB nch_mac l=100n w=375n m=4 nf=1
XMN5<19> N_47 SUB SUB  SUB nch_mac l=100n w=375n m=4 nf=1
XMN5<20> N_46 SUB SUB  SUB nch_mac l=100n w=375n m=4 nf=1
XMN5<21> N_45 SUB SUB  SUB nch_mac l=100n w=375n m=4 nf=1
XMN5<22> N_44 SUB SUB  SUB nch_mac l=100n w=375n m=4 nf=1
XMN5<23> N_43 SUB SUB  SUB nch_mac l=100n w=375n m=4 nf=1
XMN5<24> N_42 SUB SUB  SUB nch_mac l=100n w=375n m=4 nf=1
XMN5<25> N_41 SUB SUB  SUB nch_mac l=100n w=375n m=4 nf=1
XMN5<26> N_40 SUB SUB  SUB nch_mac l=100n w=375n m=4 nf=1
XMN5<27> N_39 SUB SUB  SUB nch_mac l=100n w=375n m=4 nf=1
XMN5<28> N_38 SUB SUB  SUB nch_mac l=100n w=375n m=4 nf=1
XMN5<29> N_37 SUB SUB  SUB nch_mac l=100n w=375n m=4 nf=1
XMN5<30> N_36 SUB SUB  SUB nch_mac l=100n w=375n m=4 nf=1
XMN5<31> N_35 SUB SUB  SUB nch_mac l=100n w=375n m=4 nf=1
XMP1<0> OUTP INN VDD  VDD pch_mac l=30n w=1.68u m=1 nf=8 as=94.5f ad=84f ps=3u pd=1.88u 
+sa=530n sb=530n
XMP1<1> OUTP INN VDD  VDD pch_mac l=30n w=1.68u m=1 nf=8 as=94.5f ad=84f ps=3u pd=1.88u 
+sa=530n sb=530n
XMP1<2> OUTP INN VDD  VDD pch_mac l=30n w=1.68u m=1 nf=8 as=94.5f ad=84f ps=3u pd=1.88u 
+sa=530n sb=530n
XMP1<3> OUTP INN VDD  VDD pch_mac l=30n w=1.68u m=1 nf=8 as=94.5f ad=84f ps=3u pd=1.88u 
+sa=530n sb=530n
XMP1<4> OUTP INN VDD  VDD pch_mac l=30n w=1.68u m=1 nf=8 as=94.5f ad=84f ps=3u pd=1.88u 
+sa=530n sb=530n
XMP1<5> OUTP INN VDD  VDD pch_mac l=30n w=1.68u m=1 nf=8 as=94.5f ad=84f ps=3u pd=1.88u 
+sa=530n sb=530n
XMP1<6> OUTP INN VDD  VDD pch_mac l=30n w=1.68u m=1 nf=8 as=94.5f ad=84f ps=3u pd=1.88u 
+sa=530n sb=530n
XMP1<7> OUTP INN VDD  VDD pch_mac l=30n w=1.68u m=1 nf=8 as=94.5f ad=84f ps=3u pd=1.88u 
+sa=530n sb=530n
XMP2<0> OUTN INP VDD  VDD pch_mac l=30n w=1.68u m=1 nf=8 as=94.5f ad=84f ps=3u pd=1.88u 
+sa=530n sb=530n
XMP2<1> OUTN INP VDD  VDD pch_mac l=30n w=1.68u m=1 nf=8 as=94.5f ad=84f ps=3u pd=1.88u 
+sa=530n sb=530n
XMP2<2> OUTN INP VDD  VDD pch_mac l=30n w=1.68u m=1 nf=8 as=94.5f ad=84f ps=3u pd=1.88u 
+sa=530n sb=530n
XMP2<3> OUTN INP VDD  VDD pch_mac l=30n w=1.68u m=1 nf=8 as=94.5f ad=84f ps=3u pd=1.88u 
+sa=530n sb=530n
XMP2<4> OUTN INP VDD  VDD pch_mac l=30n w=1.68u m=1 nf=8 as=94.5f ad=84f ps=3u pd=1.88u 
+sa=530n sb=530n
XMP2<5> OUTN INP VDD  VDD pch_mac l=30n w=1.68u m=1 nf=8 as=94.5f ad=84f ps=3u pd=1.88u 
+sa=530n sb=530n
XMP2<6> OUTN INP VDD  VDD pch_mac l=30n w=1.68u m=1 nf=8 as=94.5f ad=84f ps=3u pd=1.88u 
+sa=530n sb=530n
XMP2<7> OUTN INP VDD  VDD pch_mac l=30n w=1.68u m=1 nf=8 as=94.5f ad=84f ps=3u pd=1.88u 
+sa=530n sb=530n
XMP3<0> N_34 VDD VDD  VDD pch_mac l=30n w=210n m=8 nf=1
XMP3<1> N_33 VDD VDD  VDD pch_mac l=30n w=210n m=8 nf=1
XMP3<2> N_32 VDD VDD  VDD pch_mac l=30n w=210n m=8 nf=1
XMP3<3> N_31 VDD VDD  VDD pch_mac l=30n w=210n m=8 nf=1
XMP3<4> N_30 VDD VDD  VDD pch_mac l=30n w=210n m=8 nf=1
XMP3<5> N_29 VDD VDD  VDD pch_mac l=30n w=210n m=8 nf=1
XMP3<6> N_28 VDD VDD  VDD pch_mac l=30n w=210n m=8 nf=1
XMP3<7> N_27 VDD VDD  VDD pch_mac l=30n w=210n m=8 nf=1
.ends

.subckt cpar_delay INN INP OUTN OUTP SDIFF SUB VDD VSS VTUNE  
*
*
*
*
*
*
*
*
*
*
*
*
*
*
*
*
*
*
*
*
*
*
*
*
*
*
*
*
*
*
*
*
*
*
*
*
*
*
*
*
*
*
*
*
*
*
*
*
*
*
*
*
*
*
*
*
*
*
*
*
*
*
*
*
*
*
*
*
*
*
*
*
*
*
*
*
*
*
*
*
*
*
*
*
CC_1 INN VSS 20.1f
CC_2 INN VDD 27f
CC_3 INN VTUNE 0
CC_4 INN SDIFF 30f
CC_5 INP VSS 20.1f
CC_6 INP VDD 27f
CC_7 INP VTUNE 0
CC_8 INP SDIFF 30f
CC_9 OUTN VSS 7f
CC_10 OUTN VDD 10f
CC_11 OUTN VTUNE 0
CC_12 OUTN SDIFF 9.7f
CC_13 OUTP VSS 7f
CC_14 OUTP VDD 10f
CC_15 OUTP VTUNE 0
CC_16 OUTP SDIFF 9.7f
CC_17 INN INP 0
CC_18 OUTN OUTP 0
CC_19 INN OUTN 1.9f
CC_20 INN OUTP 26.7f
CC_21 INP OUTP 1.9f
CC_22 INP OUTN 26.7f
DDN1 INN  VDD pdio area=18f pj=560n m=10
DDN2 SUB  VDD dnwpsub area=1.10864n pj=133.19u m=1
DDN3 INP  VDD pdio area=18f pj=560n m=10
DDP1 SDIFF  VDD pwdnw area=558.33p pj=296.34u m=1
DDP2 SDIFF  INN ndio area=18f pj=560n m=10
DDP3 SDIFF  INP ndio area=18f pj=560n m=10
DDP4 SUB  VTUNE ndio area=34f pj=880n m=48
XM6<0> N_56 SDIFF SDIFF  SDIFF nch_lvt_mac l=140n w=8u m=1 nf=8 as=68.8f ad=60f 
+ps=13.9u pd=1.12u sa=500n sb=1.58u
XM6<1> N_55 SDIFF SDIFF  SDIFF nch_lvt_mac l=140n w=8u m=1 nf=8 as=68.8f ad=60f 
+ps=13.9u pd=1.12u sa=500n sb=1.58u
XM6<2> N_54 SDIFF SDIFF  SDIFF nch_lvt_mac l=140n w=8u m=1 nf=8 as=68.8f ad=60f 
+ps=13.9u pd=1.12u sa=500n sb=1.58u
XM6<3> N_53 SDIFF SDIFF  SDIFF nch_lvt_mac l=140n w=8u m=1 nf=8 as=68.8f ad=60f 
+ps=13.9u pd=1.12u sa=500n sb=1.58u
XM6<4> N_52 SDIFF SDIFF  SDIFF nch_lvt_mac l=140n w=8u m=1 nf=8 as=68.8f ad=60f 
+ps=13.9u pd=1.12u sa=500n sb=1.58u
XM6<5> N_51 SDIFF SDIFF  SDIFF nch_lvt_mac l=140n w=8u m=1 nf=8 as=68.8f ad=60f 
+ps=13.9u pd=1.12u sa=500n sb=1.58u
XM6<6> N_50 SDIFF SDIFF  SDIFF nch_lvt_mac l=140n w=8u m=1 nf=8 as=68.8f ad=60f 
+ps=13.9u pd=1.12u sa=500n sb=1.58u
XM6<7> N_49 SDIFF SDIFF  SDIFF nch_lvt_mac l=140n w=8u m=1 nf=8 as=68.8f ad=60f 
+ps=13.9u pd=1.12u sa=500n sb=1.58u
XM6<8> N_48 SDIFF SDIFF  SDIFF nch_lvt_mac l=140n w=8u m=1 nf=8 as=68.8f ad=60f 
+ps=13.9u pd=1.12u sa=500n sb=1.58u
XM6<9> N_47 SDIFF SDIFF  SDIFF nch_lvt_mac l=140n w=8u m=1 nf=8 as=68.8f ad=60f 
+ps=13.9u pd=1.12u sa=500n sb=1.58u
XM6<10> N_46 SDIFF SDIFF  SDIFF nch_lvt_mac l=140n w=8u m=1 nf=8 as=68.8f ad=60f 
+ps=13.9u pd=1.12u sa=500n sb=1.58u
XM6<11> N_45 SDIFF SDIFF  SDIFF nch_lvt_mac l=140n w=8u m=1 nf=8 as=68.8f ad=60f 
+ps=13.9u pd=1.12u sa=500n sb=1.58u
XM6<12> N_44 SDIFF SDIFF  SDIFF nch_lvt_mac l=140n w=8u m=1 nf=8 as=68.8f ad=60f 
+ps=13.9u pd=1.12u sa=500n sb=1.58u
XM6<13> N_43 SDIFF SDIFF  SDIFF nch_lvt_mac l=140n w=8u m=1 nf=8 as=68.8f ad=60f 
+ps=13.9u pd=1.12u sa=500n sb=1.58u
XM6<14> N_42 SDIFF SDIFF  SDIFF nch_lvt_mac l=140n w=8u m=1 nf=8 as=68.8f ad=60f 
+ps=13.9u pd=1.12u sa=500n sb=1.58u
XM6<15> N_41 SDIFF SDIFF  SDIFF nch_lvt_mac l=140n w=8u m=1 nf=8 as=68.8f ad=60f 
+ps=13.9u pd=1.12u sa=500n sb=1.58u
XM6<16> N_40 SDIFF SDIFF  SDIFF nch_lvt_mac l=140n w=8u m=1 nf=8 as=68.8f ad=60f 
+ps=13.9u pd=1.12u sa=500n sb=1.58u
XM6<17> N_39 SDIFF SDIFF  SDIFF nch_lvt_mac l=140n w=8u m=1 nf=8 as=68.8f ad=60f 
+ps=13.9u pd=1.12u sa=500n sb=1.58u
XM6<18> N_38 SDIFF SDIFF  SDIFF nch_lvt_mac l=140n w=8u m=1 nf=8 as=68.8f ad=60f 
+ps=13.9u pd=1.12u sa=500n sb=1.58u
XM6<19> N_37 SDIFF SDIFF  SDIFF nch_lvt_mac l=140n w=8u m=1 nf=8 as=68.8f ad=60f 
+ps=13.9u pd=1.12u sa=500n sb=1.58u
XM6<20> N_36 SDIFF SDIFF  SDIFF nch_lvt_mac l=140n w=8u m=1 nf=8 as=68.8f ad=60f 
+ps=13.9u pd=1.12u sa=500n sb=1.58u
XM6<21> N_35 SDIFF SDIFF  SDIFF nch_lvt_mac l=140n w=8u m=1 nf=8 as=68.8f ad=60f 
+ps=13.9u pd=1.12u sa=500n sb=1.58u
XM6<22> N_34 SDIFF SDIFF  SDIFF nch_lvt_mac l=140n w=8u m=1 nf=8 as=68.8f ad=60f 
+ps=13.9u pd=1.12u sa=500n sb=1.58u
XM6<23> N_33 SDIFF SDIFF  SDIFF nch_lvt_mac l=140n w=8u m=1 nf=8 as=68.8f ad=60f 
+ps=13.9u pd=1.12u sa=500n sb=1.58u
XM6<24> N_32 SDIFF SDIFF  SDIFF nch_lvt_mac l=140n w=8u m=1 nf=8 as=68.8f ad=60f 
+ps=13.9u pd=1.12u sa=500n sb=1.58u
XM6<25> N_31 SDIFF SDIFF  SDIFF nch_lvt_mac l=140n w=8u m=1 nf=8 as=68.8f ad=60f 
+ps=13.9u pd=1.12u sa=500n sb=1.58u
XM6<26> N_30 SDIFF SDIFF  SDIFF nch_lvt_mac l=140n w=8u m=1 nf=8 as=68.8f ad=60f 
+ps=13.9u pd=1.12u sa=500n sb=1.58u
XM6<27> N_29 SDIFF SDIFF  SDIFF nch_lvt_mac l=140n w=8u m=1 nf=8 as=68.8f ad=60f 
+ps=13.9u pd=1.12u sa=500n sb=1.58u
XM7<0> N_84 VDD VDD  VDD pch_lvt_mac l=140n w=8u m=1 nf=8 as=68.8f ad=60f ps=13.9u 
+pd=1.12u sa=500n sb=1.58u
XM7<1> N_83 VDD VDD  VDD pch_lvt_mac l=140n w=8u m=1 nf=8 as=68.8f ad=60f ps=13.9u 
+pd=1.12u sa=500n sb=1.58u
XM7<2> N_82 VDD VDD  VDD pch_lvt_mac l=140n w=8u m=1 nf=8 as=68.8f ad=60f ps=13.9u 
+pd=1.12u sa=500n sb=1.58u
XM7<3> N_81 VDD VDD  VDD pch_lvt_mac l=140n w=8u m=1 nf=8 as=68.8f ad=60f ps=13.9u 
+pd=1.12u sa=500n sb=1.58u
XM7<4> N_80 VDD VDD  VDD pch_lvt_mac l=140n w=8u m=1 nf=8 as=68.8f ad=60f ps=13.9u 
+pd=1.12u sa=500n sb=1.58u
XM7<5> N_79 VDD VDD  VDD pch_lvt_mac l=140n w=8u m=1 nf=8 as=68.8f ad=60f ps=13.9u 
+pd=1.12u sa=500n sb=1.58u
XM7<6> N_78 VDD VDD  VDD pch_lvt_mac l=140n w=8u m=1 nf=8 as=68.8f ad=60f ps=13.9u 
+pd=1.12u sa=500n sb=1.58u
XM7<7> N_77 VDD VDD  VDD pch_lvt_mac l=140n w=8u m=1 nf=8 as=68.8f ad=60f ps=13.9u 
+pd=1.12u sa=500n sb=1.58u
XM7<8> N_76 VDD VDD  VDD pch_lvt_mac l=140n w=8u m=1 nf=8 as=68.8f ad=60f ps=13.9u 
+pd=1.12u sa=500n sb=1.58u
XM7<9> N_75 VDD VDD  VDD pch_lvt_mac l=140n w=8u m=1 nf=8 as=68.8f ad=60f ps=13.9u 
+pd=1.12u sa=500n sb=1.58u
XM7<10> N_74 VDD VDD  VDD pch_lvt_mac l=140n w=8u m=1 nf=8 as=68.8f ad=60f ps=13.9u 
+pd=1.12u sa=500n sb=1.58u
XM7<11> N_73 VDD VDD  VDD pch_lvt_mac l=140n w=8u m=1 nf=8 as=68.8f ad=60f ps=13.9u 
+pd=1.12u sa=500n sb=1.58u
XM7<12> N_72 VDD VDD  VDD pch_lvt_mac l=140n w=8u m=1 nf=8 as=68.8f ad=60f ps=13.9u 
+pd=1.12u sa=500n sb=1.58u
XM7<13> N_71 VDD VDD  VDD pch_lvt_mac l=140n w=8u m=1 nf=8 as=68.8f ad=60f ps=13.9u 
+pd=1.12u sa=500n sb=1.58u
XM7<14> N_70 VDD VDD  VDD pch_lvt_mac l=140n w=8u m=1 nf=8 as=68.8f ad=60f ps=13.9u 
+pd=1.12u sa=500n sb=1.58u
XM7<15> N_69 VDD VDD  VDD pch_lvt_mac l=140n w=8u m=1 nf=8 as=68.8f ad=60f ps=13.9u 
+pd=1.12u sa=500n sb=1.58u
XM7<16> N_68 VDD VDD  VDD pch_lvt_mac l=140n w=8u m=1 nf=8 as=68.8f ad=60f ps=13.9u 
+pd=1.12u sa=500n sb=1.58u
XM7<17> N_67 VDD VDD  VDD pch_lvt_mac l=140n w=8u m=1 nf=8 as=68.8f ad=60f ps=13.9u 
+pd=1.12u sa=500n sb=1.58u
XM7<18> N_66 VDD VDD  VDD pch_lvt_mac l=140n w=8u m=1 nf=8 as=68.8f ad=60f ps=13.9u 
+pd=1.12u sa=500n sb=1.58u
XM7<19> N_65 VDD VDD  VDD pch_lvt_mac l=140n w=8u m=1 nf=8 as=68.8f ad=60f ps=13.9u 
+pd=1.12u sa=500n sb=1.58u
XM7<20> N_64 VDD VDD  VDD pch_lvt_mac l=140n w=8u m=1 nf=8 as=68.8f ad=60f ps=13.9u 
+pd=1.12u sa=500n sb=1.58u
XM7<21> N_63 VDD VDD  VDD pch_lvt_mac l=140n w=8u m=1 nf=8 as=68.8f ad=60f ps=13.9u 
+pd=1.12u sa=500n sb=1.58u
XM7<22> N_62 VDD VDD  VDD pch_lvt_mac l=140n w=8u m=1 nf=8 as=68.8f ad=60f ps=13.9u 
+pd=1.12u sa=500n sb=1.58u
XM7<23> N_61 VDD VDD  VDD pch_lvt_mac l=140n w=8u m=1 nf=8 as=68.8f ad=60f ps=13.9u 
+pd=1.12u sa=500n sb=1.58u
XM7<24> N_60 VDD VDD  VDD pch_lvt_mac l=140n w=8u m=1 nf=8 as=68.8f ad=60f ps=13.9u 
+pd=1.12u sa=500n sb=1.58u
XM7<25> N_59 VDD VDD  VDD pch_lvt_mac l=140n w=8u m=1 nf=8 as=68.8f ad=60f ps=13.9u 
+pd=1.12u sa=500n sb=1.58u
XM7<26> N_58 VDD VDD  VDD pch_lvt_mac l=140n w=8u m=1 nf=8 as=68.8f ad=60f ps=13.9u 
+pd=1.12u sa=500n sb=1.58u
XM7<27> N_57 VDD VDD  VDD pch_lvt_mac l=140n w=8u m=1 nf=8 as=68.8f ad=60f ps=13.9u 
+pd=1.12u sa=500n sb=1.58u
XM8<0> N_28 VTUNE VSS  SUB nch_lvt_mac l=600n w=5.8u m=1 nf=8 as=49.8f ad=43.5f 
+ps=1.06u pd=845n sa=2.62u sb=2.62u
XM8<1> N_27 VTUNE VSS  SUB nch_lvt_mac l=600n w=5.8u m=1 nf=8 as=49.8f ad=43.5f 
+ps=1.06u pd=845n sa=2.62u sb=2.62u
XM8<2> N_26 VTUNE VSS  SUB nch_lvt_mac l=600n w=5.8u m=1 nf=8 as=49.8f ad=43.5f 
+ps=1.06u pd=845n sa=2.62u sb=2.62u
XM8<3> N_25 VTUNE VSS  SUB nch_lvt_mac l=600n w=5.8u m=1 nf=8 as=49.8f ad=43.5f 
+ps=1.06u pd=845n sa=2.62u sb=2.62u
XM8<4> N_24 VTUNE VSS  SUB nch_lvt_mac l=600n w=5.8u m=1 nf=8 as=49.8f ad=43.5f 
+ps=1.06u pd=845n sa=2.62u sb=2.62u
XM8<5> N_23 VTUNE VSS  SUB nch_lvt_mac l=600n w=5.8u m=1 nf=8 as=49.8f ad=43.5f 
+ps=1.06u pd=845n sa=2.62u sb=2.62u
XM8<6> N_22 VTUNE VSS  SUB nch_lvt_mac l=600n w=5.8u m=1 nf=8 as=49.8f ad=43.5f 
+ps=1.06u pd=845n sa=2.62u sb=2.62u
XM8<7> N_21 VTUNE VSS  SUB nch_lvt_mac l=600n w=5.8u m=1 nf=8 as=49.8f ad=43.5f 
+ps=1.06u pd=845n sa=2.62u sb=2.62u
XM8<8> N_20 VTUNE VSS  SUB nch_lvt_mac l=600n w=5.8u m=1 nf=8 as=49.8f ad=43.5f 
+ps=1.06u pd=845n sa=2.62u sb=2.62u
XM8<9> N_19 VTUNE VSS  SUB nch_lvt_mac l=600n w=5.8u m=1 nf=8 as=49.8f ad=43.5f 
+ps=1.06u pd=845n sa=2.62u sb=2.62u
XM8<10> N_18 VTUNE VSS  SUB nch_lvt_mac l=600n w=5.8u m=1 nf=8 as=49.8f ad=43.5f 
+ps=1.06u pd=845n sa=2.62u sb=2.62u
XM8<11> N_17 VTUNE VSS  SUB nch_lvt_mac l=600n w=5.8u m=1 nf=8 as=49.8f ad=43.5f 
+ps=1.06u pd=845n sa=2.62u sb=2.62u
XM8<12> N_16 VTUNE VSS  SUB nch_lvt_mac l=600n w=5.8u m=1 nf=8 as=49.8f ad=43.5f 
+ps=1.06u pd=845n sa=2.62u sb=2.62u
XM8<13> N_15 VTUNE VSS  SUB nch_lvt_mac l=600n w=5.8u m=1 nf=8 as=49.8f ad=43.5f 
+ps=1.06u pd=845n sa=2.62u sb=2.62u
XM8<14> N_14 VTUNE VSS  SUB nch_lvt_mac l=600n w=5.8u m=1 nf=8 as=49.8f ad=43.5f 
+ps=1.06u pd=845n sa=2.62u sb=2.62u
XM8<15> N_13 VTUNE VSS  SUB nch_lvt_mac l=600n w=5.8u m=1 nf=8 as=49.8f ad=43.5f 
+ps=1.06u pd=845n sa=2.62u sb=2.62u
XM8<16> N_12 VTUNE VSS  SUB nch_lvt_mac l=600n w=5.8u m=1 nf=8 as=49.8f ad=43.5f 
+ps=1.06u pd=845n sa=2.62u sb=2.62u
XM8<17> N_11 VTUNE VSS  SUB nch_lvt_mac l=600n w=5.8u m=1 nf=8 as=49.8f ad=43.5f 
+ps=1.06u pd=845n sa=2.62u sb=2.62u
XM8<18> N_10 VTUNE VSS  SUB nch_lvt_mac l=600n w=5.8u m=1 nf=8 as=49.8f ad=43.5f 
+ps=1.06u pd=845n sa=2.62u sb=2.62u
XM8<19> N_9 VTUNE VSS  SUB nch_lvt_mac l=600n w=5.8u m=1 nf=8 as=49.8f ad=43.5f 
+ps=1.06u pd=845n sa=2.62u sb=2.62u
XM8<20> N_8 VTUNE VSS  SUB nch_lvt_mac l=600n w=5.8u m=1 nf=8 as=49.8f ad=43.5f 
+ps=1.06u pd=845n sa=2.62u sb=2.62u
XM8<21> N_7 VTUNE VSS  SUB nch_lvt_mac l=600n w=5.8u m=1 nf=8 as=49.8f ad=43.5f 
+ps=1.06u pd=845n sa=2.62u sb=2.62u
XM8<22> N_6 VTUNE VSS  SUB nch_lvt_mac l=600n w=5.8u m=1 nf=8 as=49.8f ad=43.5f 
+ps=1.06u pd=845n sa=2.62u sb=2.62u
XM8<23> N_5 VTUNE VSS  SUB nch_lvt_mac l=600n w=5.8u m=1 nf=8 as=49.8f ad=43.5f 
+ps=1.06u pd=845n sa=2.62u sb=2.62u
XM8<24> N_4 VTUNE VSS  SUB nch_lvt_mac l=600n w=5.8u m=1 nf=8 as=49.8f ad=43.5f 
+ps=1.06u pd=845n sa=2.62u sb=2.62u
XM8<25> N_3 VTUNE VSS  SUB nch_lvt_mac l=600n w=5.8u m=1 nf=8 as=49.8f ad=43.5f 
+ps=1.06u pd=845n sa=2.62u sb=2.62u
XM8<26> N_2 VTUNE VSS  SUB nch_lvt_mac l=600n w=5.8u m=1 nf=8 as=49.8f ad=43.5f 
+ps=1.06u pd=845n sa=2.62u sb=2.62u
XM8<27> N_1 VTUNE VSS  SUB nch_lvt_mac l=600n w=5.8u m=1 nf=8 as=49.8f ad=43.5f 
+ps=1.06u pd=845n sa=2.62u sb=2.62u
.ends

.subckt decode_2b b<0> b<1> code=0 vout=1 
EE13 b<1> 0 two 0 {vout/2}  MIN=0  MAX=vout
EE14 two 0 incode ref2 10k  MIN=0  MAX=2
EE15 res1 0 incode two 1  MIN=0  MAX=2
EE17 one 0 res1 ref1 10k  MIN=0  MAX=1
EE18 b<0> 0 one 0 {vout}  MIN=0  MAX=vout
VV5 ref2 0 DC 1.9 AC 0 0
VV6 ref1 0 DC 900m AC 0 0
VVcode incode 0 DC code AC 0 0
.ends

.subckt decode_13b b<0> b<1> b<2> b<3> b<4> b<5> b<6> b<7> b<8> b<9> b<10> b<11> 
+b<12> code=0 vout=1 
EE0 b4 0 res5 ref4 10k  MIN=0  MAX=16
EE1 b5 0 res6 ref5 10k  MIN=0  MAX=32
EE2 res5 0 res6 b5 1  MIN=0  MAX=32
EE3 b<5> 0 b5 0 {vout/32}  MIN=0  MAX=vout
EE4 b<8> 0 b8 0 {vout/256}  MIN=0  MAX=vout
EE5 res4 0 res5 b4 1  MIN=0  MAX=16
EE6 b3 0 res4 ref3 10k  MIN=0  MAX=8
EE7 res3 0 res4 b3 1  MIN=0  MAX=8
EE8 res2 0 res3 b2 1  MIN=0  MAX=4
EE9 b2 0 res3 ref2 10k  MIN=0  MAX=4
EE10 b<4> 0 b4 0 {vout/16}  MIN=0  MAX=vout
EE11 b<3> 0 b3 0 {vout/8}  MIN=0  MAX=vout
EE12 b<2> 0 b2 0 {vout/4}  MIN=0  MAX=vout
EE13 b<1> 0 b1 0 {vout/2}  MIN=0  MAX=vout
EE14 b1 0 res2 ref1 10k  MIN=0  MAX=2
EE15 res1 0 res2 b1 1  MIN=0  MAX=2
EE16 b<7> 0 b7 0 {vout/128}  MIN=0  MAX=vout
EE17 b0 0 res1 ref0 10k  MIN=0  MAX=1
EE18 b<0> 0 b0 0 {vout}  MIN=0  MAX=vout
EE19 b<6> 0 b6 0 {vout/64}  MIN=0  MAX=vout
EE20 b8 0 res9 ref8 10k  MIN=0  MAX=256
EE21 res8 0 res9 b8 1  MIN=0  MAX=256
EE22 b6 0 res7 ref6 10k  MIN=0  MAX=64
EE23 res6 0 res7 b6 1  MIN=0  MAX=64
EE24 b7 0 res8 ref7 10k  MIN=0  MAX=128
EE25 res7 0 res8 b7 1  MIN=0  MAX=128
EE28 b<10> 0 b10 0 {vout/1024}  MIN=0  MAX=vout
EE29 b<9> 0 b9 0 {vout/512}  MIN=0  MAX=vout
EE30 b<12> 0 b12 0 {vout/4096}  MIN=0  MAX=vout
EE31 b<11> 0 b11 0 {vout/2048}  MIN=0  MAX=vout
EE32 b10 0 res11 ref10 10k  MIN=0  MAX=1.024k
EE33 res10 0 res11 b10 1  MIN=0  MAX=1.024k
EE34 b9 0 res10 ref9 10k  MIN=0  MAX=512
EE35 res9 0 res10 b9 1  MIN=0  MAX=512
EE36 b12 0 incode ref12 10k  MIN=0  MAX=4.096k
EE37 res12 0 incode b12 1  MIN=0  MAX=4.096k
EE38 b11 0 res12 ref11 10k  MIN=0  MAX=2.048k
EE39 res11 0 res12 b11 1  MIN=0  MAX=2.048k
VV1 ref4 0 DC 15.9 AC 0 0
VV2 ref5 0 DC 31.9 AC 0 0
VV3 ref3 0 DC 7.9 AC 0 0
VV4 ref2 0 DC 3.9 AC 0 0
VV5 ref1 0 DC 1.9 AC 0 0
VV6 ref0 0 DC 900m AC 0 0
VV7 ref8 0 DC 255.9 AC 0 0
VV8 ref6 0 DC 63.9 AC 0 0
VV9 ref7 0 DC 127.9 AC 0 0
VV11 ref10 0 DC 1.0239k AC 0 0
VV12 ref9 0 DC 511.9 AC 0 0
VV13 ref12 0 DC 4.0959k AC 0 0
VV14 ref11 0 DC 2.0479k AC 0 0
VVcode incode 0 DC code AC 0 0
.ends

.subckt inv0 In Out SUB VCC0 VSS  
XMP1 Out In VCC0  VCC0 pch_mac l=30n w=200n m=1 nf=1
XMP2 Out In VSS  SUB nch_mac l=30n w=100n m=1 nf=1
.ends

.subckt inv2 In Out SUB VCC0 VSS  
XMP1 Out In VCC0  VCC0 pch_mac l=30n w=100n m=8 nf=1
XMP2 Out In VSS  SUB nch_mac l=30n w=100n m=4 nf=1
.ends

.subckt inv_unit In Out SUB VCC0 VSS  
XMP1 Out In VCC0  VCC0 pch_mac l=30n w=100n m=2 nf=1
XMP2 Out In VSS  SUB nch_mac l=30n w=100n m=1 nf=1
.ends

.subckt bias_delay_sub BIAS<0> BIAS<1> SUB VDD VSS bias_delay iref_delay  
*
*
*
*
*
*
*
*
*
*
*
*
*
*
*
*
*
*
*
*
*
*
*
*
*
*
*
*
*
*
*
*
*
*
*
*
*
*
*
*
*
*
*
*
*
*
*
*
*
*
*
*
*
*
*
*
*
*
*
*
*
*
*
*
*
*
*
*
*
*
*
*
*
*
*
*
*
*
*
*
*
*
*
*
CC1 bias_delay VSS 60p
DDP4 SUB  VGTUNE ndio area=34f pj=880n m=4
XC2 bias_delay  VSS nmoscap_18 lr=1.02u wr=1.56u m=2.91k
Xinv2_1 BIAS<0> B0b SUB VDD VSS inv2
Xinv2_2 BIAS<1> B1b SUB VDD VSS inv2
XM1 D3 VGTUNE VSS  SUB nch_lvt_mac l=600n w=5.8u m=2 nf=8 as=326.25f ad=290f ps=8.15u 
+pd=6u sa=2.525u sb=2.525u
XM2 VGTUNE GP VDD  VDD pch_lvt_mac l=100n w=1u m=3 nf=4 as=62.5f ad=50f ps=2u pd=1.2u 
+sa=375n sb=375n
XM3 D2 GP VDD  VDD pch_lvt_mac l=100n w=1u m=1 nf=4 as=62.5f ad=50f ps=2u pd=1.2u 
+sa=375n sb=375n
XM4 GP iref_delay VSS  SUB nch_lvt_mac l=100n w=1u m=4 nf=4 as=62.5f ad=50f ps=2u 
+pd=1.2u sa=375n sb=375n
XM5 D1 iref_delay VSS  SUB nch_lvt_mac l=100n w=1u m=1 nf=4 as=62.5f ad=50f ps=2u 
+pd=1.2u sa=375n sb=375n
XM6 VGTUNE VCAS1 D3  SUB nch_lvt_mac l=50n w=1u m=40 nf=4 as=62.5f ad=50f ps=2u 
+pd=1.2u sa=300n sb=300n
XM7 GP VCAS2 D2  VDD pch_lvt_mac l=50n w=1u m=8 nf=4 as=62.5f ad=50f ps=2u pd=1.2u 
+sa=300n sb=300n
XM8 iref_delay VCAS1 D1  SUB nch_lvt_mac l=50n w=1u m=1 nf=4 as=62.5f ad=50f ps=2u 
+pd=1.2u sa=300n sb=300n
XM9 VGTUNE N_1 VDD  VDD pch_lvt_mac l=100n w=1u m=1 nf=4 as=62.5f ad=50f ps=2u pd=1.2u 
+sa=375n sb=375n
XM10 VGTUNE N_2 VDD  VDD pch_lvt_mac l=100n w=1u m=2 nf=4 as=62.5f ad=50f ps=2u 
+pd=1.2u sa=375n sb=375n
XMB1 GP BIAS<0> N_1  SUB nch_mac l=30n w=400n m=1 nf=4 as=25f ad=20f ps=1.1u pd=600n 
+sa=270n sb=270n
XMB2 VDD B0b N_1  SUB nch_mac l=30n w=400n m=1 nf=4 as=25f ad=20f ps=1.1u pd=600n 